* CIM Array 64x8 -- Auto-generated by evaluate.py
.lib "sky130_models/sky130.lib.spice" sf
.param supply=1.8

.subckt cim_bitcell bl blb wl wwl q qb vdd vss
* 6T SRAM storage core
XPL q qb vdd vdd sky130_fd_pr__pfet_01v8 w=0.55u l=0.15u
XPR qb q vdd vdd sky130_fd_pr__pfet_01v8 w=0.55u l=0.15u
XNL q qb vss vss sky130_fd_pr__nfet_01v8 w=0.84u l=0.15u
XNR qb q vss vss sky130_fd_pr__nfet_01v8 w=0.84u l=0.15u
* Write access transistors
XAXL blb wwl q vss sky130_fd_pr__nfet_01v8 w=0.42u l=0.15u
XAXR bl wwl qb vss sky130_fd_pr__nfet_01v8 w=0.42u l=0.15u
* 2T decoupled read port: BL -> RD1 (gate=Q) -> mid -> RD2 (gate=WL) -> VSS
XRD1 bl q mid vss sky130_fd_pr__nfet_01v8 w=0.42u l=1.0u
XRD2 mid wl vss vss sky130_fd_pr__nfet_01v8 w=0.42u l=1.0u
.ends cim_bitcell

* Precharge circuit
.subckt precharge bl pre vdd vss
XPRE vdd pre bl vdd sky130_fd_pr__pfet_01v8 w=10.0u l=0.15u
.ends precharge

Vdd vdd 0 {supply}
Vss vss 0 0

* Precharge: low (PMOS on) for 20.0ns, then high (PMOS off) for compute
Vpre pre 0 PWL(0 0 20.0n 0 20.1n 1.8)

Xpre0 bl0 pre vdd vss precharge
Xpre1 bl1 pre vdd vss precharge
Xpre2 bl2 pre vdd vss precharge
Xpre3 bl3 pre vdd vss precharge
Xpre4 bl4 pre vdd vss precharge
Xpre5 bl5 pre vdd vss precharge
Xpre6 bl6 pre vdd vss precharge
Xpre7 bl7 pre vdd vss precharge

Cbl0 bl0 0 177.34375f
Cbl1 bl1 0 177.34375f
Cbl2 bl2 0 177.34375f
Cbl3 bl3 0 177.34375f
Cbl4 bl4 0 177.34375f
Cbl5 bl5 0 177.34375f
Cbl6 bl6 0 177.34375f
Cbl7 bl7 0 177.34375f

* Wordline signals (PWM-encoded inputs)
Vwl0 wl0 0 PWL(0 0 21.0n 0 21.15n 1.8 25.998n 1.8 26.148n 0)
Vwl1 wl1 0 PWL(0 0 21.0n 0 21.15n 1.8 95.97n 1.8 96.12n 0)
Vwl2 wl2 0 PWL(0 0 21.0n 0 21.15n 1.8 80.976n 1.8 81.126n 0)
Vwl3 wl3 0 PWL(0 0 21.0n 0 21.15n 1.8 90.97200000000001n 1.8 91.12200000000001n 0)
Vwl4 wl4 0 PWL(0 0 21.0n 0 21.15n 1.8 35.994n 1.8 36.144n 0)
Vwl5 wl5 0 PWL(0 0 21.0n 0 21.15n 1.8 95.97n 1.8 96.12n 0)
Vwl6 wl6 0 PWL(0 0 21.0n 0 21.15n 1.8 90.97200000000001n 1.8 91.12200000000001n 0)
Vwl7 wl7 0 PWL(0 0 21.0n 0 21.15n 1.8 45.99n 1.8 46.14n 0)
Vwl8 wl8 0 PWL(0 0 21.0n 0 21.15n 1.8 75.97800000000001n 1.8 76.12800000000001n 0)
Vwl9 wl9 0 PWL(0 0 21.0n 0 21.15n 1.8 60.984n 1.8 61.134n 0)
Vwl10 wl10 0 PWL(0 0 21.0n 0 21.15n 1.8 40.992000000000004n 1.8 41.142n 0)
Vwl11 wl11 0 PWL(0 0 21.0n 0 21.15n 1.8 30.996000000000002n 1.8 31.146n 0)
Vwl12 wl12 0 PWL(0 0 21.0n 0 21.15n 1.8 60.984n 1.8 61.134n 0)
Vwl13 wl13 0 PWL(0 0 21.0n 0 21.15n 1.8 65.982n 1.8 66.132n 0)
Vwl14 wl14 0 PWL(0 0 21.0n 0 21.15n 1.8 35.994n 1.8 36.144n 0)
Vwl15 wl15 0 PWL(0 0 21.0n 0 21.15n 1.8 70.98n 1.8 71.13000000000001n 0)
Vwl16 wl16 0 PWL(0 0 21.0n 0 21.15n 1.8 50.988n 1.8 51.138n 0)
Vwl17 wl17 0 PWL(0 0 21.0n 0 21.15n 1.8 30.996000000000002n 1.8 31.146n 0)
Vwl18 wl18 0 PWL(0 0 21.0n 0 21.15n 1.8 65.982n 1.8 66.132n 0)
Vwl19 wl19 0 PWL(0 0 21.0n 0 21.15n 1.8 60.984n 1.8 61.134n 0)
Vwl20 wl20 0 0
Vwl21 wl21 0 PWL(0 0 21.0n 0 21.15n 1.8 45.99n 1.8 46.14n 0)
Vwl22 wl22 0 0
Vwl23 wl23 0 PWL(0 0 21.0n 0 21.15n 1.8 55.986000000000004n 1.8 56.136n 0)
Vwl24 wl24 0 PWL(0 0 21.0n 0 21.15n 1.8 25.998n 1.8 26.148n 0)
Vwl25 wl25 0 PWL(0 0 21.0n 0 21.15n 1.8 50.988n 1.8 51.138n 0)
Vwl26 wl26 0 PWL(0 0 21.0n 0 21.15n 1.8 25.998n 1.8 26.148n 0)
Vwl27 wl27 0 PWL(0 0 21.0n 0 21.15n 1.8 95.97n 1.8 96.12n 0)
Vwl28 wl28 0 PWL(0 0 21.0n 0 21.15n 1.8 90.97200000000001n 1.8 91.12200000000001n 0)
Vwl29 wl29 0 PWL(0 0 21.0n 0 21.15n 1.8 50.988n 1.8 51.138n 0)
Vwl30 wl30 0 PWL(0 0 21.0n 0 21.15n 1.8 80.976n 1.8 81.126n 0)
Vwl31 wl31 0 PWL(0 0 21.0n 0 21.15n 1.8 60.984n 1.8 61.134n 0)
Vwl32 wl32 0 0
Vwl33 wl33 0 PWL(0 0 21.0n 0 21.15n 1.8 60.984n 1.8 61.134n 0)
Vwl34 wl34 0 PWL(0 0 21.0n 0 21.15n 1.8 55.986000000000004n 1.8 56.136n 0)
Vwl35 wl35 0 PWL(0 0 21.0n 0 21.15n 1.8 75.97800000000001n 1.8 76.12800000000001n 0)
Vwl36 wl36 0 PWL(0 0 21.0n 0 21.15n 1.8 75.97800000000001n 1.8 76.12800000000001n 0)
Vwl37 wl37 0 0
Vwl38 wl38 0 0
Vwl39 wl39 0 PWL(0 0 21.0n 0 21.15n 1.8 60.984n 1.8 61.134n 0)
Vwl40 wl40 0 PWL(0 0 21.0n 0 21.15n 1.8 70.98n 1.8 71.13000000000001n 0)
Vwl41 wl41 0 PWL(0 0 21.0n 0 21.15n 1.8 30.996000000000002n 1.8 31.146n 0)
Vwl42 wl42 0 PWL(0 0 21.0n 0 21.15n 1.8 45.99n 1.8 46.14n 0)
Vwl43 wl43 0 PWL(0 0 21.0n 0 21.15n 1.8 60.984n 1.8 61.134n 0)
Vwl44 wl44 0 PWL(0 0 21.0n 0 21.15n 1.8 65.982n 1.8 66.132n 0)
Vwl45 wl45 0 PWL(0 0 21.0n 0 21.15n 1.8 60.984n 1.8 61.134n 0)
Vwl46 wl46 0 PWL(0 0 21.0n 0 21.15n 1.8 40.992000000000004n 1.8 41.142n 0)
Vwl47 wl47 0 PWL(0 0 21.0n 0 21.15n 1.8 70.98n 1.8 71.13000000000001n 0)
Vwl48 wl48 0 PWL(0 0 21.0n 0 21.15n 1.8 35.994n 1.8 36.144n 0)
Vwl49 wl49 0 PWL(0 0 21.0n 0 21.15n 1.8 75.97800000000001n 1.8 76.12800000000001n 0)
Vwl50 wl50 0 PWL(0 0 21.0n 0 21.15n 1.8 50.988n 1.8 51.138n 0)
Vwl51 wl51 0 PWL(0 0 21.0n 0 21.15n 1.8 25.998n 1.8 26.148n 0)
Vwl52 wl52 0 PWL(0 0 21.0n 0 21.15n 1.8 90.97200000000001n 1.8 91.12200000000001n 0)
Vwl53 wl53 0 PWL(0 0 21.0n 0 21.15n 1.8 45.99n 1.8 46.14n 0)
Vwl54 wl54 0 0
Vwl55 wl55 0 PWL(0 0 21.0n 0 21.15n 1.8 60.984n 1.8 61.134n 0)
Vwl56 wl56 0 PWL(0 0 21.0n 0 21.15n 1.8 40.992000000000004n 1.8 41.142n 0)
Vwl57 wl57 0 PWL(0 0 21.0n 0 21.15n 1.8 90.97200000000001n 1.8 91.12200000000001n 0)
Vwl58 wl58 0 PWL(0 0 21.0n 0 21.15n 1.8 95.97n 1.8 96.12n 0)
Vwl59 wl59 0 PWL(0 0 21.0n 0 21.15n 1.8 75.97800000000001n 1.8 76.12800000000001n 0)
Vwl60 wl60 0 PWL(0 0 21.0n 0 21.15n 1.8 95.97n 1.8 96.12n 0)
Vwl61 wl61 0 PWL(0 0 21.0n 0 21.15n 1.8 30.996000000000002n 1.8 31.146n 0)
Vwl62 wl62 0 PWL(0 0 21.0n 0 21.15n 1.8 30.996000000000002n 1.8 31.146n 0)
Vwl63 wl63 0 PWL(0 0 21.0n 0 21.15n 1.8 30.996000000000002n 1.8 31.146n 0)

Vwwl0 wwl0 0 0
Vwwl1 wwl1 0 0
Vwwl2 wwl2 0 0
Vwwl3 wwl3 0 0
Vwwl4 wwl4 0 0
Vwwl5 wwl5 0 0
Vwwl6 wwl6 0 0
Vwwl7 wwl7 0 0
Vwwl8 wwl8 0 0
Vwwl9 wwl9 0 0
Vwwl10 wwl10 0 0
Vwwl11 wwl11 0 0
Vwwl12 wwl12 0 0
Vwwl13 wwl13 0 0
Vwwl14 wwl14 0 0
Vwwl15 wwl15 0 0
Vwwl16 wwl16 0 0
Vwwl17 wwl17 0 0
Vwwl18 wwl18 0 0
Vwwl19 wwl19 0 0
Vwwl20 wwl20 0 0
Vwwl21 wwl21 0 0
Vwwl22 wwl22 0 0
Vwwl23 wwl23 0 0
Vwwl24 wwl24 0 0
Vwwl25 wwl25 0 0
Vwwl26 wwl26 0 0
Vwwl27 wwl27 0 0
Vwwl28 wwl28 0 0
Vwwl29 wwl29 0 0
Vwwl30 wwl30 0 0
Vwwl31 wwl31 0 0
Vwwl32 wwl32 0 0
Vwwl33 wwl33 0 0
Vwwl34 wwl34 0 0
Vwwl35 wwl35 0 0
Vwwl36 wwl36 0 0
Vwwl37 wwl37 0 0
Vwwl38 wwl38 0 0
Vwwl39 wwl39 0 0
Vwwl40 wwl40 0 0
Vwwl41 wwl41 0 0
Vwwl42 wwl42 0 0
Vwwl43 wwl43 0 0
Vwwl44 wwl44 0 0
Vwwl45 wwl45 0 0
Vwwl46 wwl46 0 0
Vwwl47 wwl47 0 0
Vwwl48 wwl48 0 0
Vwwl49 wwl49 0 0
Vwwl50 wwl50 0 0
Vwwl51 wwl51 0 0
Vwwl52 wwl52 0 0
Vwwl53 wwl53 0 0
Vwwl54 wwl54 0 0
Vwwl55 wwl55 0 0
Vwwl56 wwl56 0 0
Vwwl57 wwl57 0 0
Vwwl58 wwl58 0 0
Vwwl59 wwl59 0 0
Vwwl60 wwl60 0 0
Vwwl61 wwl61 0 0
Vwwl62 wwl62 0 0
Vwwl63 wwl63 0 0

* 64x8 bitcell array
Xcell_r0_c0 bl0 blb0 wl0 wwl0 q_r0c0 qb_r0c0 vdd vss cim_bitcell
Xcell_r0_c1 bl1 blb1 wl0 wwl0 q_r0c1 qb_r0c1 vdd vss cim_bitcell
Xcell_r0_c2 bl2 blb2 wl0 wwl0 q_r0c2 qb_r0c2 vdd vss cim_bitcell
Xcell_r0_c3 bl3 blb3 wl0 wwl0 q_r0c3 qb_r0c3 vdd vss cim_bitcell
Xcell_r0_c4 bl4 blb4 wl0 wwl0 q_r0c4 qb_r0c4 vdd vss cim_bitcell
Xcell_r0_c5 bl5 blb5 wl0 wwl0 q_r0c5 qb_r0c5 vdd vss cim_bitcell
Xcell_r0_c6 bl6 blb6 wl0 wwl0 q_r0c6 qb_r0c6 vdd vss cim_bitcell
Xcell_r0_c7 bl7 blb7 wl0 wwl0 q_r0c7 qb_r0c7 vdd vss cim_bitcell
Xcell_r1_c0 bl0 blb0 wl1 wwl1 q_r1c0 qb_r1c0 vdd vss cim_bitcell
Xcell_r1_c1 bl1 blb1 wl1 wwl1 q_r1c1 qb_r1c1 vdd vss cim_bitcell
Xcell_r1_c2 bl2 blb2 wl1 wwl1 q_r1c2 qb_r1c2 vdd vss cim_bitcell
Xcell_r1_c3 bl3 blb3 wl1 wwl1 q_r1c3 qb_r1c3 vdd vss cim_bitcell
Xcell_r1_c4 bl4 blb4 wl1 wwl1 q_r1c4 qb_r1c4 vdd vss cim_bitcell
Xcell_r1_c5 bl5 blb5 wl1 wwl1 q_r1c5 qb_r1c5 vdd vss cim_bitcell
Xcell_r1_c6 bl6 blb6 wl1 wwl1 q_r1c6 qb_r1c6 vdd vss cim_bitcell
Xcell_r1_c7 bl7 blb7 wl1 wwl1 q_r1c7 qb_r1c7 vdd vss cim_bitcell
Xcell_r2_c0 bl0 blb0 wl2 wwl2 q_r2c0 qb_r2c0 vdd vss cim_bitcell
Xcell_r2_c1 bl1 blb1 wl2 wwl2 q_r2c1 qb_r2c1 vdd vss cim_bitcell
Xcell_r2_c2 bl2 blb2 wl2 wwl2 q_r2c2 qb_r2c2 vdd vss cim_bitcell
Xcell_r2_c3 bl3 blb3 wl2 wwl2 q_r2c3 qb_r2c3 vdd vss cim_bitcell
Xcell_r2_c4 bl4 blb4 wl2 wwl2 q_r2c4 qb_r2c4 vdd vss cim_bitcell
Xcell_r2_c5 bl5 blb5 wl2 wwl2 q_r2c5 qb_r2c5 vdd vss cim_bitcell
Xcell_r2_c6 bl6 blb6 wl2 wwl2 q_r2c6 qb_r2c6 vdd vss cim_bitcell
Xcell_r2_c7 bl7 blb7 wl2 wwl2 q_r2c7 qb_r2c7 vdd vss cim_bitcell
Xcell_r3_c0 bl0 blb0 wl3 wwl3 q_r3c0 qb_r3c0 vdd vss cim_bitcell
Xcell_r3_c1 bl1 blb1 wl3 wwl3 q_r3c1 qb_r3c1 vdd vss cim_bitcell
Xcell_r3_c2 bl2 blb2 wl3 wwl3 q_r3c2 qb_r3c2 vdd vss cim_bitcell
Xcell_r3_c3 bl3 blb3 wl3 wwl3 q_r3c3 qb_r3c3 vdd vss cim_bitcell
Xcell_r3_c4 bl4 blb4 wl3 wwl3 q_r3c4 qb_r3c4 vdd vss cim_bitcell
Xcell_r3_c5 bl5 blb5 wl3 wwl3 q_r3c5 qb_r3c5 vdd vss cim_bitcell
Xcell_r3_c6 bl6 blb6 wl3 wwl3 q_r3c6 qb_r3c6 vdd vss cim_bitcell
Xcell_r3_c7 bl7 blb7 wl3 wwl3 q_r3c7 qb_r3c7 vdd vss cim_bitcell
Xcell_r4_c0 bl0 blb0 wl4 wwl4 q_r4c0 qb_r4c0 vdd vss cim_bitcell
Xcell_r4_c1 bl1 blb1 wl4 wwl4 q_r4c1 qb_r4c1 vdd vss cim_bitcell
Xcell_r4_c2 bl2 blb2 wl4 wwl4 q_r4c2 qb_r4c2 vdd vss cim_bitcell
Xcell_r4_c3 bl3 blb3 wl4 wwl4 q_r4c3 qb_r4c3 vdd vss cim_bitcell
Xcell_r4_c4 bl4 blb4 wl4 wwl4 q_r4c4 qb_r4c4 vdd vss cim_bitcell
Xcell_r4_c5 bl5 blb5 wl4 wwl4 q_r4c5 qb_r4c5 vdd vss cim_bitcell
Xcell_r4_c6 bl6 blb6 wl4 wwl4 q_r4c6 qb_r4c6 vdd vss cim_bitcell
Xcell_r4_c7 bl7 blb7 wl4 wwl4 q_r4c7 qb_r4c7 vdd vss cim_bitcell
Xcell_r5_c0 bl0 blb0 wl5 wwl5 q_r5c0 qb_r5c0 vdd vss cim_bitcell
Xcell_r5_c1 bl1 blb1 wl5 wwl5 q_r5c1 qb_r5c1 vdd vss cim_bitcell
Xcell_r5_c2 bl2 blb2 wl5 wwl5 q_r5c2 qb_r5c2 vdd vss cim_bitcell
Xcell_r5_c3 bl3 blb3 wl5 wwl5 q_r5c3 qb_r5c3 vdd vss cim_bitcell
Xcell_r5_c4 bl4 blb4 wl5 wwl5 q_r5c4 qb_r5c4 vdd vss cim_bitcell
Xcell_r5_c5 bl5 blb5 wl5 wwl5 q_r5c5 qb_r5c5 vdd vss cim_bitcell
Xcell_r5_c6 bl6 blb6 wl5 wwl5 q_r5c6 qb_r5c6 vdd vss cim_bitcell
Xcell_r5_c7 bl7 blb7 wl5 wwl5 q_r5c7 qb_r5c7 vdd vss cim_bitcell
Xcell_r6_c0 bl0 blb0 wl6 wwl6 q_r6c0 qb_r6c0 vdd vss cim_bitcell
Xcell_r6_c1 bl1 blb1 wl6 wwl6 q_r6c1 qb_r6c1 vdd vss cim_bitcell
Xcell_r6_c2 bl2 blb2 wl6 wwl6 q_r6c2 qb_r6c2 vdd vss cim_bitcell
Xcell_r6_c3 bl3 blb3 wl6 wwl6 q_r6c3 qb_r6c3 vdd vss cim_bitcell
Xcell_r6_c4 bl4 blb4 wl6 wwl6 q_r6c4 qb_r6c4 vdd vss cim_bitcell
Xcell_r6_c5 bl5 blb5 wl6 wwl6 q_r6c5 qb_r6c5 vdd vss cim_bitcell
Xcell_r6_c6 bl6 blb6 wl6 wwl6 q_r6c6 qb_r6c6 vdd vss cim_bitcell
Xcell_r6_c7 bl7 blb7 wl6 wwl6 q_r6c7 qb_r6c7 vdd vss cim_bitcell
Xcell_r7_c0 bl0 blb0 wl7 wwl7 q_r7c0 qb_r7c0 vdd vss cim_bitcell
Xcell_r7_c1 bl1 blb1 wl7 wwl7 q_r7c1 qb_r7c1 vdd vss cim_bitcell
Xcell_r7_c2 bl2 blb2 wl7 wwl7 q_r7c2 qb_r7c2 vdd vss cim_bitcell
Xcell_r7_c3 bl3 blb3 wl7 wwl7 q_r7c3 qb_r7c3 vdd vss cim_bitcell
Xcell_r7_c4 bl4 blb4 wl7 wwl7 q_r7c4 qb_r7c4 vdd vss cim_bitcell
Xcell_r7_c5 bl5 blb5 wl7 wwl7 q_r7c5 qb_r7c5 vdd vss cim_bitcell
Xcell_r7_c6 bl6 blb6 wl7 wwl7 q_r7c6 qb_r7c6 vdd vss cim_bitcell
Xcell_r7_c7 bl7 blb7 wl7 wwl7 q_r7c7 qb_r7c7 vdd vss cim_bitcell
Xcell_r8_c0 bl0 blb0 wl8 wwl8 q_r8c0 qb_r8c0 vdd vss cim_bitcell
Xcell_r8_c1 bl1 blb1 wl8 wwl8 q_r8c1 qb_r8c1 vdd vss cim_bitcell
Xcell_r8_c2 bl2 blb2 wl8 wwl8 q_r8c2 qb_r8c2 vdd vss cim_bitcell
Xcell_r8_c3 bl3 blb3 wl8 wwl8 q_r8c3 qb_r8c3 vdd vss cim_bitcell
Xcell_r8_c4 bl4 blb4 wl8 wwl8 q_r8c4 qb_r8c4 vdd vss cim_bitcell
Xcell_r8_c5 bl5 blb5 wl8 wwl8 q_r8c5 qb_r8c5 vdd vss cim_bitcell
Xcell_r8_c6 bl6 blb6 wl8 wwl8 q_r8c6 qb_r8c6 vdd vss cim_bitcell
Xcell_r8_c7 bl7 blb7 wl8 wwl8 q_r8c7 qb_r8c7 vdd vss cim_bitcell
Xcell_r9_c0 bl0 blb0 wl9 wwl9 q_r9c0 qb_r9c0 vdd vss cim_bitcell
Xcell_r9_c1 bl1 blb1 wl9 wwl9 q_r9c1 qb_r9c1 vdd vss cim_bitcell
Xcell_r9_c2 bl2 blb2 wl9 wwl9 q_r9c2 qb_r9c2 vdd vss cim_bitcell
Xcell_r9_c3 bl3 blb3 wl9 wwl9 q_r9c3 qb_r9c3 vdd vss cim_bitcell
Xcell_r9_c4 bl4 blb4 wl9 wwl9 q_r9c4 qb_r9c4 vdd vss cim_bitcell
Xcell_r9_c5 bl5 blb5 wl9 wwl9 q_r9c5 qb_r9c5 vdd vss cim_bitcell
Xcell_r9_c6 bl6 blb6 wl9 wwl9 q_r9c6 qb_r9c6 vdd vss cim_bitcell
Xcell_r9_c7 bl7 blb7 wl9 wwl9 q_r9c7 qb_r9c7 vdd vss cim_bitcell
Xcell_r10_c0 bl0 blb0 wl10 wwl10 q_r10c0 qb_r10c0 vdd vss cim_bitcell
Xcell_r10_c1 bl1 blb1 wl10 wwl10 q_r10c1 qb_r10c1 vdd vss cim_bitcell
Xcell_r10_c2 bl2 blb2 wl10 wwl10 q_r10c2 qb_r10c2 vdd vss cim_bitcell
Xcell_r10_c3 bl3 blb3 wl10 wwl10 q_r10c3 qb_r10c3 vdd vss cim_bitcell
Xcell_r10_c4 bl4 blb4 wl10 wwl10 q_r10c4 qb_r10c4 vdd vss cim_bitcell
Xcell_r10_c5 bl5 blb5 wl10 wwl10 q_r10c5 qb_r10c5 vdd vss cim_bitcell
Xcell_r10_c6 bl6 blb6 wl10 wwl10 q_r10c6 qb_r10c6 vdd vss cim_bitcell
Xcell_r10_c7 bl7 blb7 wl10 wwl10 q_r10c7 qb_r10c7 vdd vss cim_bitcell
Xcell_r11_c0 bl0 blb0 wl11 wwl11 q_r11c0 qb_r11c0 vdd vss cim_bitcell
Xcell_r11_c1 bl1 blb1 wl11 wwl11 q_r11c1 qb_r11c1 vdd vss cim_bitcell
Xcell_r11_c2 bl2 blb2 wl11 wwl11 q_r11c2 qb_r11c2 vdd vss cim_bitcell
Xcell_r11_c3 bl3 blb3 wl11 wwl11 q_r11c3 qb_r11c3 vdd vss cim_bitcell
Xcell_r11_c4 bl4 blb4 wl11 wwl11 q_r11c4 qb_r11c4 vdd vss cim_bitcell
Xcell_r11_c5 bl5 blb5 wl11 wwl11 q_r11c5 qb_r11c5 vdd vss cim_bitcell
Xcell_r11_c6 bl6 blb6 wl11 wwl11 q_r11c6 qb_r11c6 vdd vss cim_bitcell
Xcell_r11_c7 bl7 blb7 wl11 wwl11 q_r11c7 qb_r11c7 vdd vss cim_bitcell
Xcell_r12_c0 bl0 blb0 wl12 wwl12 q_r12c0 qb_r12c0 vdd vss cim_bitcell
Xcell_r12_c1 bl1 blb1 wl12 wwl12 q_r12c1 qb_r12c1 vdd vss cim_bitcell
Xcell_r12_c2 bl2 blb2 wl12 wwl12 q_r12c2 qb_r12c2 vdd vss cim_bitcell
Xcell_r12_c3 bl3 blb3 wl12 wwl12 q_r12c3 qb_r12c3 vdd vss cim_bitcell
Xcell_r12_c4 bl4 blb4 wl12 wwl12 q_r12c4 qb_r12c4 vdd vss cim_bitcell
Xcell_r12_c5 bl5 blb5 wl12 wwl12 q_r12c5 qb_r12c5 vdd vss cim_bitcell
Xcell_r12_c6 bl6 blb6 wl12 wwl12 q_r12c6 qb_r12c6 vdd vss cim_bitcell
Xcell_r12_c7 bl7 blb7 wl12 wwl12 q_r12c7 qb_r12c7 vdd vss cim_bitcell
Xcell_r13_c0 bl0 blb0 wl13 wwl13 q_r13c0 qb_r13c0 vdd vss cim_bitcell
Xcell_r13_c1 bl1 blb1 wl13 wwl13 q_r13c1 qb_r13c1 vdd vss cim_bitcell
Xcell_r13_c2 bl2 blb2 wl13 wwl13 q_r13c2 qb_r13c2 vdd vss cim_bitcell
Xcell_r13_c3 bl3 blb3 wl13 wwl13 q_r13c3 qb_r13c3 vdd vss cim_bitcell
Xcell_r13_c4 bl4 blb4 wl13 wwl13 q_r13c4 qb_r13c4 vdd vss cim_bitcell
Xcell_r13_c5 bl5 blb5 wl13 wwl13 q_r13c5 qb_r13c5 vdd vss cim_bitcell
Xcell_r13_c6 bl6 blb6 wl13 wwl13 q_r13c6 qb_r13c6 vdd vss cim_bitcell
Xcell_r13_c7 bl7 blb7 wl13 wwl13 q_r13c7 qb_r13c7 vdd vss cim_bitcell
Xcell_r14_c0 bl0 blb0 wl14 wwl14 q_r14c0 qb_r14c0 vdd vss cim_bitcell
Xcell_r14_c1 bl1 blb1 wl14 wwl14 q_r14c1 qb_r14c1 vdd vss cim_bitcell
Xcell_r14_c2 bl2 blb2 wl14 wwl14 q_r14c2 qb_r14c2 vdd vss cim_bitcell
Xcell_r14_c3 bl3 blb3 wl14 wwl14 q_r14c3 qb_r14c3 vdd vss cim_bitcell
Xcell_r14_c4 bl4 blb4 wl14 wwl14 q_r14c4 qb_r14c4 vdd vss cim_bitcell
Xcell_r14_c5 bl5 blb5 wl14 wwl14 q_r14c5 qb_r14c5 vdd vss cim_bitcell
Xcell_r14_c6 bl6 blb6 wl14 wwl14 q_r14c6 qb_r14c6 vdd vss cim_bitcell
Xcell_r14_c7 bl7 blb7 wl14 wwl14 q_r14c7 qb_r14c7 vdd vss cim_bitcell
Xcell_r15_c0 bl0 blb0 wl15 wwl15 q_r15c0 qb_r15c0 vdd vss cim_bitcell
Xcell_r15_c1 bl1 blb1 wl15 wwl15 q_r15c1 qb_r15c1 vdd vss cim_bitcell
Xcell_r15_c2 bl2 blb2 wl15 wwl15 q_r15c2 qb_r15c2 vdd vss cim_bitcell
Xcell_r15_c3 bl3 blb3 wl15 wwl15 q_r15c3 qb_r15c3 vdd vss cim_bitcell
Xcell_r15_c4 bl4 blb4 wl15 wwl15 q_r15c4 qb_r15c4 vdd vss cim_bitcell
Xcell_r15_c5 bl5 blb5 wl15 wwl15 q_r15c5 qb_r15c5 vdd vss cim_bitcell
Xcell_r15_c6 bl6 blb6 wl15 wwl15 q_r15c6 qb_r15c6 vdd vss cim_bitcell
Xcell_r15_c7 bl7 blb7 wl15 wwl15 q_r15c7 qb_r15c7 vdd vss cim_bitcell
Xcell_r16_c0 bl0 blb0 wl16 wwl16 q_r16c0 qb_r16c0 vdd vss cim_bitcell
Xcell_r16_c1 bl1 blb1 wl16 wwl16 q_r16c1 qb_r16c1 vdd vss cim_bitcell
Xcell_r16_c2 bl2 blb2 wl16 wwl16 q_r16c2 qb_r16c2 vdd vss cim_bitcell
Xcell_r16_c3 bl3 blb3 wl16 wwl16 q_r16c3 qb_r16c3 vdd vss cim_bitcell
Xcell_r16_c4 bl4 blb4 wl16 wwl16 q_r16c4 qb_r16c4 vdd vss cim_bitcell
Xcell_r16_c5 bl5 blb5 wl16 wwl16 q_r16c5 qb_r16c5 vdd vss cim_bitcell
Xcell_r16_c6 bl6 blb6 wl16 wwl16 q_r16c6 qb_r16c6 vdd vss cim_bitcell
Xcell_r16_c7 bl7 blb7 wl16 wwl16 q_r16c7 qb_r16c7 vdd vss cim_bitcell
Xcell_r17_c0 bl0 blb0 wl17 wwl17 q_r17c0 qb_r17c0 vdd vss cim_bitcell
Xcell_r17_c1 bl1 blb1 wl17 wwl17 q_r17c1 qb_r17c1 vdd vss cim_bitcell
Xcell_r17_c2 bl2 blb2 wl17 wwl17 q_r17c2 qb_r17c2 vdd vss cim_bitcell
Xcell_r17_c3 bl3 blb3 wl17 wwl17 q_r17c3 qb_r17c3 vdd vss cim_bitcell
Xcell_r17_c4 bl4 blb4 wl17 wwl17 q_r17c4 qb_r17c4 vdd vss cim_bitcell
Xcell_r17_c5 bl5 blb5 wl17 wwl17 q_r17c5 qb_r17c5 vdd vss cim_bitcell
Xcell_r17_c6 bl6 blb6 wl17 wwl17 q_r17c6 qb_r17c6 vdd vss cim_bitcell
Xcell_r17_c7 bl7 blb7 wl17 wwl17 q_r17c7 qb_r17c7 vdd vss cim_bitcell
Xcell_r18_c0 bl0 blb0 wl18 wwl18 q_r18c0 qb_r18c0 vdd vss cim_bitcell
Xcell_r18_c1 bl1 blb1 wl18 wwl18 q_r18c1 qb_r18c1 vdd vss cim_bitcell
Xcell_r18_c2 bl2 blb2 wl18 wwl18 q_r18c2 qb_r18c2 vdd vss cim_bitcell
Xcell_r18_c3 bl3 blb3 wl18 wwl18 q_r18c3 qb_r18c3 vdd vss cim_bitcell
Xcell_r18_c4 bl4 blb4 wl18 wwl18 q_r18c4 qb_r18c4 vdd vss cim_bitcell
Xcell_r18_c5 bl5 blb5 wl18 wwl18 q_r18c5 qb_r18c5 vdd vss cim_bitcell
Xcell_r18_c6 bl6 blb6 wl18 wwl18 q_r18c6 qb_r18c6 vdd vss cim_bitcell
Xcell_r18_c7 bl7 blb7 wl18 wwl18 q_r18c7 qb_r18c7 vdd vss cim_bitcell
Xcell_r19_c0 bl0 blb0 wl19 wwl19 q_r19c0 qb_r19c0 vdd vss cim_bitcell
Xcell_r19_c1 bl1 blb1 wl19 wwl19 q_r19c1 qb_r19c1 vdd vss cim_bitcell
Xcell_r19_c2 bl2 blb2 wl19 wwl19 q_r19c2 qb_r19c2 vdd vss cim_bitcell
Xcell_r19_c3 bl3 blb3 wl19 wwl19 q_r19c3 qb_r19c3 vdd vss cim_bitcell
Xcell_r19_c4 bl4 blb4 wl19 wwl19 q_r19c4 qb_r19c4 vdd vss cim_bitcell
Xcell_r19_c5 bl5 blb5 wl19 wwl19 q_r19c5 qb_r19c5 vdd vss cim_bitcell
Xcell_r19_c6 bl6 blb6 wl19 wwl19 q_r19c6 qb_r19c6 vdd vss cim_bitcell
Xcell_r19_c7 bl7 blb7 wl19 wwl19 q_r19c7 qb_r19c7 vdd vss cim_bitcell
Xcell_r20_c0 bl0 blb0 wl20 wwl20 q_r20c0 qb_r20c0 vdd vss cim_bitcell
Xcell_r20_c1 bl1 blb1 wl20 wwl20 q_r20c1 qb_r20c1 vdd vss cim_bitcell
Xcell_r20_c2 bl2 blb2 wl20 wwl20 q_r20c2 qb_r20c2 vdd vss cim_bitcell
Xcell_r20_c3 bl3 blb3 wl20 wwl20 q_r20c3 qb_r20c3 vdd vss cim_bitcell
Xcell_r20_c4 bl4 blb4 wl20 wwl20 q_r20c4 qb_r20c4 vdd vss cim_bitcell
Xcell_r20_c5 bl5 blb5 wl20 wwl20 q_r20c5 qb_r20c5 vdd vss cim_bitcell
Xcell_r20_c6 bl6 blb6 wl20 wwl20 q_r20c6 qb_r20c6 vdd vss cim_bitcell
Xcell_r20_c7 bl7 blb7 wl20 wwl20 q_r20c7 qb_r20c7 vdd vss cim_bitcell
Xcell_r21_c0 bl0 blb0 wl21 wwl21 q_r21c0 qb_r21c0 vdd vss cim_bitcell
Xcell_r21_c1 bl1 blb1 wl21 wwl21 q_r21c1 qb_r21c1 vdd vss cim_bitcell
Xcell_r21_c2 bl2 blb2 wl21 wwl21 q_r21c2 qb_r21c2 vdd vss cim_bitcell
Xcell_r21_c3 bl3 blb3 wl21 wwl21 q_r21c3 qb_r21c3 vdd vss cim_bitcell
Xcell_r21_c4 bl4 blb4 wl21 wwl21 q_r21c4 qb_r21c4 vdd vss cim_bitcell
Xcell_r21_c5 bl5 blb5 wl21 wwl21 q_r21c5 qb_r21c5 vdd vss cim_bitcell
Xcell_r21_c6 bl6 blb6 wl21 wwl21 q_r21c6 qb_r21c6 vdd vss cim_bitcell
Xcell_r21_c7 bl7 blb7 wl21 wwl21 q_r21c7 qb_r21c7 vdd vss cim_bitcell
Xcell_r22_c0 bl0 blb0 wl22 wwl22 q_r22c0 qb_r22c0 vdd vss cim_bitcell
Xcell_r22_c1 bl1 blb1 wl22 wwl22 q_r22c1 qb_r22c1 vdd vss cim_bitcell
Xcell_r22_c2 bl2 blb2 wl22 wwl22 q_r22c2 qb_r22c2 vdd vss cim_bitcell
Xcell_r22_c3 bl3 blb3 wl22 wwl22 q_r22c3 qb_r22c3 vdd vss cim_bitcell
Xcell_r22_c4 bl4 blb4 wl22 wwl22 q_r22c4 qb_r22c4 vdd vss cim_bitcell
Xcell_r22_c5 bl5 blb5 wl22 wwl22 q_r22c5 qb_r22c5 vdd vss cim_bitcell
Xcell_r22_c6 bl6 blb6 wl22 wwl22 q_r22c6 qb_r22c6 vdd vss cim_bitcell
Xcell_r22_c7 bl7 blb7 wl22 wwl22 q_r22c7 qb_r22c7 vdd vss cim_bitcell
Xcell_r23_c0 bl0 blb0 wl23 wwl23 q_r23c0 qb_r23c0 vdd vss cim_bitcell
Xcell_r23_c1 bl1 blb1 wl23 wwl23 q_r23c1 qb_r23c1 vdd vss cim_bitcell
Xcell_r23_c2 bl2 blb2 wl23 wwl23 q_r23c2 qb_r23c2 vdd vss cim_bitcell
Xcell_r23_c3 bl3 blb3 wl23 wwl23 q_r23c3 qb_r23c3 vdd vss cim_bitcell
Xcell_r23_c4 bl4 blb4 wl23 wwl23 q_r23c4 qb_r23c4 vdd vss cim_bitcell
Xcell_r23_c5 bl5 blb5 wl23 wwl23 q_r23c5 qb_r23c5 vdd vss cim_bitcell
Xcell_r23_c6 bl6 blb6 wl23 wwl23 q_r23c6 qb_r23c6 vdd vss cim_bitcell
Xcell_r23_c7 bl7 blb7 wl23 wwl23 q_r23c7 qb_r23c7 vdd vss cim_bitcell
Xcell_r24_c0 bl0 blb0 wl24 wwl24 q_r24c0 qb_r24c0 vdd vss cim_bitcell
Xcell_r24_c1 bl1 blb1 wl24 wwl24 q_r24c1 qb_r24c1 vdd vss cim_bitcell
Xcell_r24_c2 bl2 blb2 wl24 wwl24 q_r24c2 qb_r24c2 vdd vss cim_bitcell
Xcell_r24_c3 bl3 blb3 wl24 wwl24 q_r24c3 qb_r24c3 vdd vss cim_bitcell
Xcell_r24_c4 bl4 blb4 wl24 wwl24 q_r24c4 qb_r24c4 vdd vss cim_bitcell
Xcell_r24_c5 bl5 blb5 wl24 wwl24 q_r24c5 qb_r24c5 vdd vss cim_bitcell
Xcell_r24_c6 bl6 blb6 wl24 wwl24 q_r24c6 qb_r24c6 vdd vss cim_bitcell
Xcell_r24_c7 bl7 blb7 wl24 wwl24 q_r24c7 qb_r24c7 vdd vss cim_bitcell
Xcell_r25_c0 bl0 blb0 wl25 wwl25 q_r25c0 qb_r25c0 vdd vss cim_bitcell
Xcell_r25_c1 bl1 blb1 wl25 wwl25 q_r25c1 qb_r25c1 vdd vss cim_bitcell
Xcell_r25_c2 bl2 blb2 wl25 wwl25 q_r25c2 qb_r25c2 vdd vss cim_bitcell
Xcell_r25_c3 bl3 blb3 wl25 wwl25 q_r25c3 qb_r25c3 vdd vss cim_bitcell
Xcell_r25_c4 bl4 blb4 wl25 wwl25 q_r25c4 qb_r25c4 vdd vss cim_bitcell
Xcell_r25_c5 bl5 blb5 wl25 wwl25 q_r25c5 qb_r25c5 vdd vss cim_bitcell
Xcell_r25_c6 bl6 blb6 wl25 wwl25 q_r25c6 qb_r25c6 vdd vss cim_bitcell
Xcell_r25_c7 bl7 blb7 wl25 wwl25 q_r25c7 qb_r25c7 vdd vss cim_bitcell
Xcell_r26_c0 bl0 blb0 wl26 wwl26 q_r26c0 qb_r26c0 vdd vss cim_bitcell
Xcell_r26_c1 bl1 blb1 wl26 wwl26 q_r26c1 qb_r26c1 vdd vss cim_bitcell
Xcell_r26_c2 bl2 blb2 wl26 wwl26 q_r26c2 qb_r26c2 vdd vss cim_bitcell
Xcell_r26_c3 bl3 blb3 wl26 wwl26 q_r26c3 qb_r26c3 vdd vss cim_bitcell
Xcell_r26_c4 bl4 blb4 wl26 wwl26 q_r26c4 qb_r26c4 vdd vss cim_bitcell
Xcell_r26_c5 bl5 blb5 wl26 wwl26 q_r26c5 qb_r26c5 vdd vss cim_bitcell
Xcell_r26_c6 bl6 blb6 wl26 wwl26 q_r26c6 qb_r26c6 vdd vss cim_bitcell
Xcell_r26_c7 bl7 blb7 wl26 wwl26 q_r26c7 qb_r26c7 vdd vss cim_bitcell
Xcell_r27_c0 bl0 blb0 wl27 wwl27 q_r27c0 qb_r27c0 vdd vss cim_bitcell
Xcell_r27_c1 bl1 blb1 wl27 wwl27 q_r27c1 qb_r27c1 vdd vss cim_bitcell
Xcell_r27_c2 bl2 blb2 wl27 wwl27 q_r27c2 qb_r27c2 vdd vss cim_bitcell
Xcell_r27_c3 bl3 blb3 wl27 wwl27 q_r27c3 qb_r27c3 vdd vss cim_bitcell
Xcell_r27_c4 bl4 blb4 wl27 wwl27 q_r27c4 qb_r27c4 vdd vss cim_bitcell
Xcell_r27_c5 bl5 blb5 wl27 wwl27 q_r27c5 qb_r27c5 vdd vss cim_bitcell
Xcell_r27_c6 bl6 blb6 wl27 wwl27 q_r27c6 qb_r27c6 vdd vss cim_bitcell
Xcell_r27_c7 bl7 blb7 wl27 wwl27 q_r27c7 qb_r27c7 vdd vss cim_bitcell
Xcell_r28_c0 bl0 blb0 wl28 wwl28 q_r28c0 qb_r28c0 vdd vss cim_bitcell
Xcell_r28_c1 bl1 blb1 wl28 wwl28 q_r28c1 qb_r28c1 vdd vss cim_bitcell
Xcell_r28_c2 bl2 blb2 wl28 wwl28 q_r28c2 qb_r28c2 vdd vss cim_bitcell
Xcell_r28_c3 bl3 blb3 wl28 wwl28 q_r28c3 qb_r28c3 vdd vss cim_bitcell
Xcell_r28_c4 bl4 blb4 wl28 wwl28 q_r28c4 qb_r28c4 vdd vss cim_bitcell
Xcell_r28_c5 bl5 blb5 wl28 wwl28 q_r28c5 qb_r28c5 vdd vss cim_bitcell
Xcell_r28_c6 bl6 blb6 wl28 wwl28 q_r28c6 qb_r28c6 vdd vss cim_bitcell
Xcell_r28_c7 bl7 blb7 wl28 wwl28 q_r28c7 qb_r28c7 vdd vss cim_bitcell
Xcell_r29_c0 bl0 blb0 wl29 wwl29 q_r29c0 qb_r29c0 vdd vss cim_bitcell
Xcell_r29_c1 bl1 blb1 wl29 wwl29 q_r29c1 qb_r29c1 vdd vss cim_bitcell
Xcell_r29_c2 bl2 blb2 wl29 wwl29 q_r29c2 qb_r29c2 vdd vss cim_bitcell
Xcell_r29_c3 bl3 blb3 wl29 wwl29 q_r29c3 qb_r29c3 vdd vss cim_bitcell
Xcell_r29_c4 bl4 blb4 wl29 wwl29 q_r29c4 qb_r29c4 vdd vss cim_bitcell
Xcell_r29_c5 bl5 blb5 wl29 wwl29 q_r29c5 qb_r29c5 vdd vss cim_bitcell
Xcell_r29_c6 bl6 blb6 wl29 wwl29 q_r29c6 qb_r29c6 vdd vss cim_bitcell
Xcell_r29_c7 bl7 blb7 wl29 wwl29 q_r29c7 qb_r29c7 vdd vss cim_bitcell
Xcell_r30_c0 bl0 blb0 wl30 wwl30 q_r30c0 qb_r30c0 vdd vss cim_bitcell
Xcell_r30_c1 bl1 blb1 wl30 wwl30 q_r30c1 qb_r30c1 vdd vss cim_bitcell
Xcell_r30_c2 bl2 blb2 wl30 wwl30 q_r30c2 qb_r30c2 vdd vss cim_bitcell
Xcell_r30_c3 bl3 blb3 wl30 wwl30 q_r30c3 qb_r30c3 vdd vss cim_bitcell
Xcell_r30_c4 bl4 blb4 wl30 wwl30 q_r30c4 qb_r30c4 vdd vss cim_bitcell
Xcell_r30_c5 bl5 blb5 wl30 wwl30 q_r30c5 qb_r30c5 vdd vss cim_bitcell
Xcell_r30_c6 bl6 blb6 wl30 wwl30 q_r30c6 qb_r30c6 vdd vss cim_bitcell
Xcell_r30_c7 bl7 blb7 wl30 wwl30 q_r30c7 qb_r30c7 vdd vss cim_bitcell
Xcell_r31_c0 bl0 blb0 wl31 wwl31 q_r31c0 qb_r31c0 vdd vss cim_bitcell
Xcell_r31_c1 bl1 blb1 wl31 wwl31 q_r31c1 qb_r31c1 vdd vss cim_bitcell
Xcell_r31_c2 bl2 blb2 wl31 wwl31 q_r31c2 qb_r31c2 vdd vss cim_bitcell
Xcell_r31_c3 bl3 blb3 wl31 wwl31 q_r31c3 qb_r31c3 vdd vss cim_bitcell
Xcell_r31_c4 bl4 blb4 wl31 wwl31 q_r31c4 qb_r31c4 vdd vss cim_bitcell
Xcell_r31_c5 bl5 blb5 wl31 wwl31 q_r31c5 qb_r31c5 vdd vss cim_bitcell
Xcell_r31_c6 bl6 blb6 wl31 wwl31 q_r31c6 qb_r31c6 vdd vss cim_bitcell
Xcell_r31_c7 bl7 blb7 wl31 wwl31 q_r31c7 qb_r31c7 vdd vss cim_bitcell
Xcell_r32_c0 bl0 blb0 wl32 wwl32 q_r32c0 qb_r32c0 vdd vss cim_bitcell
Xcell_r32_c1 bl1 blb1 wl32 wwl32 q_r32c1 qb_r32c1 vdd vss cim_bitcell
Xcell_r32_c2 bl2 blb2 wl32 wwl32 q_r32c2 qb_r32c2 vdd vss cim_bitcell
Xcell_r32_c3 bl3 blb3 wl32 wwl32 q_r32c3 qb_r32c3 vdd vss cim_bitcell
Xcell_r32_c4 bl4 blb4 wl32 wwl32 q_r32c4 qb_r32c4 vdd vss cim_bitcell
Xcell_r32_c5 bl5 blb5 wl32 wwl32 q_r32c5 qb_r32c5 vdd vss cim_bitcell
Xcell_r32_c6 bl6 blb6 wl32 wwl32 q_r32c6 qb_r32c6 vdd vss cim_bitcell
Xcell_r32_c7 bl7 blb7 wl32 wwl32 q_r32c7 qb_r32c7 vdd vss cim_bitcell
Xcell_r33_c0 bl0 blb0 wl33 wwl33 q_r33c0 qb_r33c0 vdd vss cim_bitcell
Xcell_r33_c1 bl1 blb1 wl33 wwl33 q_r33c1 qb_r33c1 vdd vss cim_bitcell
Xcell_r33_c2 bl2 blb2 wl33 wwl33 q_r33c2 qb_r33c2 vdd vss cim_bitcell
Xcell_r33_c3 bl3 blb3 wl33 wwl33 q_r33c3 qb_r33c3 vdd vss cim_bitcell
Xcell_r33_c4 bl4 blb4 wl33 wwl33 q_r33c4 qb_r33c4 vdd vss cim_bitcell
Xcell_r33_c5 bl5 blb5 wl33 wwl33 q_r33c5 qb_r33c5 vdd vss cim_bitcell
Xcell_r33_c6 bl6 blb6 wl33 wwl33 q_r33c6 qb_r33c6 vdd vss cim_bitcell
Xcell_r33_c7 bl7 blb7 wl33 wwl33 q_r33c7 qb_r33c7 vdd vss cim_bitcell
Xcell_r34_c0 bl0 blb0 wl34 wwl34 q_r34c0 qb_r34c0 vdd vss cim_bitcell
Xcell_r34_c1 bl1 blb1 wl34 wwl34 q_r34c1 qb_r34c1 vdd vss cim_bitcell
Xcell_r34_c2 bl2 blb2 wl34 wwl34 q_r34c2 qb_r34c2 vdd vss cim_bitcell
Xcell_r34_c3 bl3 blb3 wl34 wwl34 q_r34c3 qb_r34c3 vdd vss cim_bitcell
Xcell_r34_c4 bl4 blb4 wl34 wwl34 q_r34c4 qb_r34c4 vdd vss cim_bitcell
Xcell_r34_c5 bl5 blb5 wl34 wwl34 q_r34c5 qb_r34c5 vdd vss cim_bitcell
Xcell_r34_c6 bl6 blb6 wl34 wwl34 q_r34c6 qb_r34c6 vdd vss cim_bitcell
Xcell_r34_c7 bl7 blb7 wl34 wwl34 q_r34c7 qb_r34c7 vdd vss cim_bitcell
Xcell_r35_c0 bl0 blb0 wl35 wwl35 q_r35c0 qb_r35c0 vdd vss cim_bitcell
Xcell_r35_c1 bl1 blb1 wl35 wwl35 q_r35c1 qb_r35c1 vdd vss cim_bitcell
Xcell_r35_c2 bl2 blb2 wl35 wwl35 q_r35c2 qb_r35c2 vdd vss cim_bitcell
Xcell_r35_c3 bl3 blb3 wl35 wwl35 q_r35c3 qb_r35c3 vdd vss cim_bitcell
Xcell_r35_c4 bl4 blb4 wl35 wwl35 q_r35c4 qb_r35c4 vdd vss cim_bitcell
Xcell_r35_c5 bl5 blb5 wl35 wwl35 q_r35c5 qb_r35c5 vdd vss cim_bitcell
Xcell_r35_c6 bl6 blb6 wl35 wwl35 q_r35c6 qb_r35c6 vdd vss cim_bitcell
Xcell_r35_c7 bl7 blb7 wl35 wwl35 q_r35c7 qb_r35c7 vdd vss cim_bitcell
Xcell_r36_c0 bl0 blb0 wl36 wwl36 q_r36c0 qb_r36c0 vdd vss cim_bitcell
Xcell_r36_c1 bl1 blb1 wl36 wwl36 q_r36c1 qb_r36c1 vdd vss cim_bitcell
Xcell_r36_c2 bl2 blb2 wl36 wwl36 q_r36c2 qb_r36c2 vdd vss cim_bitcell
Xcell_r36_c3 bl3 blb3 wl36 wwl36 q_r36c3 qb_r36c3 vdd vss cim_bitcell
Xcell_r36_c4 bl4 blb4 wl36 wwl36 q_r36c4 qb_r36c4 vdd vss cim_bitcell
Xcell_r36_c5 bl5 blb5 wl36 wwl36 q_r36c5 qb_r36c5 vdd vss cim_bitcell
Xcell_r36_c6 bl6 blb6 wl36 wwl36 q_r36c6 qb_r36c6 vdd vss cim_bitcell
Xcell_r36_c7 bl7 blb7 wl36 wwl36 q_r36c7 qb_r36c7 vdd vss cim_bitcell
Xcell_r37_c0 bl0 blb0 wl37 wwl37 q_r37c0 qb_r37c0 vdd vss cim_bitcell
Xcell_r37_c1 bl1 blb1 wl37 wwl37 q_r37c1 qb_r37c1 vdd vss cim_bitcell
Xcell_r37_c2 bl2 blb2 wl37 wwl37 q_r37c2 qb_r37c2 vdd vss cim_bitcell
Xcell_r37_c3 bl3 blb3 wl37 wwl37 q_r37c3 qb_r37c3 vdd vss cim_bitcell
Xcell_r37_c4 bl4 blb4 wl37 wwl37 q_r37c4 qb_r37c4 vdd vss cim_bitcell
Xcell_r37_c5 bl5 blb5 wl37 wwl37 q_r37c5 qb_r37c5 vdd vss cim_bitcell
Xcell_r37_c6 bl6 blb6 wl37 wwl37 q_r37c6 qb_r37c6 vdd vss cim_bitcell
Xcell_r37_c7 bl7 blb7 wl37 wwl37 q_r37c7 qb_r37c7 vdd vss cim_bitcell
Xcell_r38_c0 bl0 blb0 wl38 wwl38 q_r38c0 qb_r38c0 vdd vss cim_bitcell
Xcell_r38_c1 bl1 blb1 wl38 wwl38 q_r38c1 qb_r38c1 vdd vss cim_bitcell
Xcell_r38_c2 bl2 blb2 wl38 wwl38 q_r38c2 qb_r38c2 vdd vss cim_bitcell
Xcell_r38_c3 bl3 blb3 wl38 wwl38 q_r38c3 qb_r38c3 vdd vss cim_bitcell
Xcell_r38_c4 bl4 blb4 wl38 wwl38 q_r38c4 qb_r38c4 vdd vss cim_bitcell
Xcell_r38_c5 bl5 blb5 wl38 wwl38 q_r38c5 qb_r38c5 vdd vss cim_bitcell
Xcell_r38_c6 bl6 blb6 wl38 wwl38 q_r38c6 qb_r38c6 vdd vss cim_bitcell
Xcell_r38_c7 bl7 blb7 wl38 wwl38 q_r38c7 qb_r38c7 vdd vss cim_bitcell
Xcell_r39_c0 bl0 blb0 wl39 wwl39 q_r39c0 qb_r39c0 vdd vss cim_bitcell
Xcell_r39_c1 bl1 blb1 wl39 wwl39 q_r39c1 qb_r39c1 vdd vss cim_bitcell
Xcell_r39_c2 bl2 blb2 wl39 wwl39 q_r39c2 qb_r39c2 vdd vss cim_bitcell
Xcell_r39_c3 bl3 blb3 wl39 wwl39 q_r39c3 qb_r39c3 vdd vss cim_bitcell
Xcell_r39_c4 bl4 blb4 wl39 wwl39 q_r39c4 qb_r39c4 vdd vss cim_bitcell
Xcell_r39_c5 bl5 blb5 wl39 wwl39 q_r39c5 qb_r39c5 vdd vss cim_bitcell
Xcell_r39_c6 bl6 blb6 wl39 wwl39 q_r39c6 qb_r39c6 vdd vss cim_bitcell
Xcell_r39_c7 bl7 blb7 wl39 wwl39 q_r39c7 qb_r39c7 vdd vss cim_bitcell
Xcell_r40_c0 bl0 blb0 wl40 wwl40 q_r40c0 qb_r40c0 vdd vss cim_bitcell
Xcell_r40_c1 bl1 blb1 wl40 wwl40 q_r40c1 qb_r40c1 vdd vss cim_bitcell
Xcell_r40_c2 bl2 blb2 wl40 wwl40 q_r40c2 qb_r40c2 vdd vss cim_bitcell
Xcell_r40_c3 bl3 blb3 wl40 wwl40 q_r40c3 qb_r40c3 vdd vss cim_bitcell
Xcell_r40_c4 bl4 blb4 wl40 wwl40 q_r40c4 qb_r40c4 vdd vss cim_bitcell
Xcell_r40_c5 bl5 blb5 wl40 wwl40 q_r40c5 qb_r40c5 vdd vss cim_bitcell
Xcell_r40_c6 bl6 blb6 wl40 wwl40 q_r40c6 qb_r40c6 vdd vss cim_bitcell
Xcell_r40_c7 bl7 blb7 wl40 wwl40 q_r40c7 qb_r40c7 vdd vss cim_bitcell
Xcell_r41_c0 bl0 blb0 wl41 wwl41 q_r41c0 qb_r41c0 vdd vss cim_bitcell
Xcell_r41_c1 bl1 blb1 wl41 wwl41 q_r41c1 qb_r41c1 vdd vss cim_bitcell
Xcell_r41_c2 bl2 blb2 wl41 wwl41 q_r41c2 qb_r41c2 vdd vss cim_bitcell
Xcell_r41_c3 bl3 blb3 wl41 wwl41 q_r41c3 qb_r41c3 vdd vss cim_bitcell
Xcell_r41_c4 bl4 blb4 wl41 wwl41 q_r41c4 qb_r41c4 vdd vss cim_bitcell
Xcell_r41_c5 bl5 blb5 wl41 wwl41 q_r41c5 qb_r41c5 vdd vss cim_bitcell
Xcell_r41_c6 bl6 blb6 wl41 wwl41 q_r41c6 qb_r41c6 vdd vss cim_bitcell
Xcell_r41_c7 bl7 blb7 wl41 wwl41 q_r41c7 qb_r41c7 vdd vss cim_bitcell
Xcell_r42_c0 bl0 blb0 wl42 wwl42 q_r42c0 qb_r42c0 vdd vss cim_bitcell
Xcell_r42_c1 bl1 blb1 wl42 wwl42 q_r42c1 qb_r42c1 vdd vss cim_bitcell